IEEE33re.m
function mpc = IEEE33re
%% MATPOWER Case Format : Version 2
mpc.version = '2';

%%-----  Power Flow Data  -----%%
%% system MVA base
mpc.baseMVA = 10;

%% bus data
%	bus_i	type	Pd	Qd	Gs	Bs	area	Vm	Va	baseKV	zone	Vmax	Vmin
mpc.bus = [
	1	3	0	0	0       0	2	1.0	0	12.66	1	1.07	1 0;
	2	1	0.10	0.06	0	0	2	1.0 0	12.66	1	1.07	0.93 0.117;
	3	1	0.09	0.04	0	0	2	1.0	0	12.66	1	1.07	0.93 0.098;
	4	1	0.12	0.08	0	0	1	1.0	0	12.66	1	1.07	0.93 0.144;
	5	1	0.06	0.03	0	0	1	1.0	0	12.66	1	1.07	0.93 0.067;
	6	1	-0.12	0.02	0	0	1	1.0	0	12.66	1	1.07	0.93 0.063;
	7	1	-0.10	0.10	0	0	1	1.0	0	12.66	1	1.07	0.93 0.223;
	8	1	-0.08	-0.10	0	0	1	1.0	0	12.66	1	1.07	0.93 0.223;
	9	1	-0.10	0.02	0	0	1	1.0	0	12.66	1	1.07	0.93 0.063;
	10	1	0.06	0.02	0	0	1	1.0	0	12.66	1	1.07	0.93 0.063;
	11	1	0.045	0.03	0	0	1	1.0	0	12.66	1	1.07	0.93 0.054;
	12	1	-0.12	-0.035	0	0	1	1.0	0	12.66	1	1.07	0.93 0.069;
	13	1	-0.10	0.035	0	0	1	1.0	0	12.66	1	1.07	0.93 0.069;
	14	1	-0.15	0.08	0	0	1	1.0	0	12.66	1	1.07	0.93 0.144;
	15	1	0.1	0.01	0	0	3	1.0	0	12.66	1	1.07	0.93 0.0608;
	16	1	-0.13	-0.12	0	0	3	1.0	0	12.66	1	1.07	0.93 0.063;
	17	1	0.06	0.02	0	0	2	1.0	0	12.66	1	1.07	0.93 0.063;
	18	1	0.09	0.04	0	0	2	1.0	0	12.66	1	1.07	0.93 0.0985;
	19	1	0.09	0.04	0	0	3	1.0	0	12.66	1	1.07	0.93 0.0985;
	20	1	-0.07	-0.02	0	0	3	1.0	0	12.66	1	1.07	0.93 0.0985;
	21	1	0.09	0.04	0	0	3	1.0	0	12.66	1	1.07	0.93 0.0985;
	22	1	0.09	0.04	0	0	3	1.0	0	12.66	1	1.07	0.93 0.0985;
	23	1	0.09	0.05	0	0	3	1.0	0	12.66	1	1.07	0.93 0.103;
	24	1	-0.10	-0.08	0	0	3	1.0	0	12.66	1	1.07	0.93 0.465;
	25	1	0.42	0.20	0	0	2	1.0	0	12.66	1	1.07	0.93 0.465;
	26	1	0.06	0.025	0	0	2	1.0	0	12.66	1	1.07	0.93 0.065;
	27	1	0.06	0.025	0	0	2	1.0	0	12.66	1	1.07	0.93 0.065;
	28	1	0.06	0.020	0	0	3	1.0	0	12.66	1	1.07	0.93 0.063;
	29	1	0.12	0.070	0	0	3	1.0	0	12.66	1	1.07	0.93 0.139;
	30	1	-0.14	-0.60	0	0	2	1.0	0	12.66	1	1.07	0.93 0.632;
	31	1	0.15	0.07	0	0	1	1.0	0	12.66	1	1.07	0.93 0.166;
	32	1	0.21	0.10	0	0	1	1.0	0	12.66	1	1.07	0.93 0.233;
	33	1	0.06	0.04	0	0	3	1.0	0	12.66	1	1.07	0.93 0.072;
];

%% generator data
%	bus	Pg	Qg	Qmax	Qmin	Vg	mBase	status	Pmax	Pmin	Pc1	Pc2	Qc1min	Qc1max	Qc2min	Qc2max	ramp_agc	ramp_10	ramp_30	ramp_q	apf
mpc.gen = [
	1 0	0	500	-500	1	10	1	1000	-1000	0	0	0	0	0	0	0	0	0	0	0;
];

%% branch data
%	fbus	tbus	r	x	b	rateA	rateB	rateC	ratio	angle	status	angmin	angmax
mpc.branch = [
	1	2	0.00575	0.00293	0	600	600	600	0	0	1	-360	360;
	2	3	0.03076	0.01567	0	900	900 900	0	0	1	-360	360;
	3	4	0.02284	0.01163	0	500	500	500	0	0	1	-360	360;
	4	5	0.02378	0.01211	0	500	500	500	0	0	1	-360	360;
	5	6	0.05110	0.04411	0	500	500	500	0	0	1	-360	360;
	6	7	0.01168	0.03861	0	500	500	500	0	0	1	-360	360;
	7	8	0.04439	0.01467	0	600	600	600	0	0	1	-360	360;
	8	9	0.06426	0.04617	0	500	500	500	0	0	1	-360	360;
	9	10	0.06514	0.04617	0	900	900	900	0	0	1	-360	360;
	10  11	0.01227	0.00406	0	900	900	900	0	0	1	-360	360;
	11	12	0.02336	0.00772	0	900	900	900	0	0	1	-360	360;
	12	13	0.09159	0.07206	0	480	480	480	0	0	1	-360	360;
	13	14	0.03379	0.04448	0	900	900	900	0	0	1	-360	360;
	14	15	0.03687	0.03282	0	900	900	900	0	0	1	-360	360;
	15	16	0.04656	0.03400	0	900	900	900	0	0	1	-360	360;
	16	17	0.08042	0.10738	0	600	600	600	0	0	1	-360	360;
	17	18	0.04567	0.03581	0	600	600	600	0	0	1	-360	360;
    2	19	0.01023	0.00976	0	600	600	600	0	0	1	-360	360;
	19	20	0.09385	0.08457	0	600	600	600	0	0	1	-360	360;
	20	21	0.02555	0.02985	0	600	600	600	0	0	1	-360	360;
	21	22	0.04423	0.05848	0	600	600	600	0	0	1	-360	360;
	3	23	0.02815	0.01924	0	600	600	900	0	0	1	-360	360;
	23	24	0.05603	0.04424	0	600	600	600	0	0	1	-360	360;
	24	25	0.05590	0.04374	0	600	600	600	0	0	1	-360	360;
	6	26	0.01267	0.00645	0	600	600	600	0	0	1	-360	360;
	26	27	0.01773	0.00903	0	600	600	600	0	0	1	-360	360;
	27	28	0.06607	0.05826	0	900	900	900	0	0	1	-360	360;
	28	29	0.05018	0.04371	0	600	600	600	0	0	1	-360	360;
	29	30	0.03166	0.01613	0	600	600	600	0	0	1	-360	360;
	30	31	0.06080	0.06008	0	600	600	600	0	0	1	-360	360;
	31	32	0.01937	0.02258	0	600	600	600	0	0	1	-360	360;
	32	33	0.02128	0.03308	0	600	600	600	0	0	1	-360	360;
];
%% generator cost data
%	1	startup	shutdown	n	x1	y1	...	xn	yn
%	2	startup	shutdown	n	c(n-1)	...	c0
mpc.gencost = [
	2	0	0	3	0	20	0;
];
%% grid
%Bus	ActivePower (MW)	Power factor (lag)
mpc.Grid = [
    1	0.3	 0.9];



